FoamFile
{
    version     2.0;
    format      ascii;
    class       dictionary;
    object      solidProperties;
}

solid
{
    E           2.1e11;     // Young's modulus (Pa)
    nu          0.3;        // Poisson's ratio
    rho         7850;       // Density (kg/m³)
}
