FoamFile
{
    version     2.0;
    format      ascii;
    class       volScalarField;
    object      p;
}

dimensions      [0 2 -2 0 0 0 0];        // Units of pressure (Pascal)
internalField   uniform 0;               // Initial pressure

boundaryField
{
    defaultFaces
    {
        type            zeroGradient;
    }
}
